
This summary file was generated by TurbSim (v1.50, 25-Sep-2009) on 10-Jan-2024 at 01:37:53.


Runtime Options:

       522  Random seed #1
    485375  Random seed #2
         F  Output binary HH turbulence parameters?
         F  Output formatted turbulence parameters?
         F  Output AeroDyn HH files?
         T  Output AeroDyn FF files?
         T  Output BLADED FF files?
         T  Output tower data?
         F  Output formatted FF files?
         F  Output coherent turbulence time step file?
         T  Clockwise rotation when looking downwind?
 0 -  NONE  IEC turbulence models scaled to exact specified standard deviation


Turbine/Model Specifications:

        31  Vertical grid-point matrix dimension
        31  Horizontal grid-point matrix dimension
     5.000  Time step [seconds]
 10050.000  Analysis time [seconds]
 10000.000  Usable output time [seconds]
   110.000  Hub height [m]
   150.000  Grid height [m]
   150.000  Grid width [m]
     0.000  Vertical flow angle [degrees]
     0.000  Horizontal flow angle [degrees]


Meteorological Boundary Conditions:

    IECKAI  IEC Kaimal spectral model
         1  IEC standard: IEC 61400-1 Ed. 3: 2005
     5.000  Percent turbulence intensity, IEC 61400-1 Ed. 3: 2005
       NTM  IEC Normal Turbulence Model
       N/A  IEC Extreme Turbulence Model (ETM) "c" parameter [m/s]
       PL   Wind profile type
   110.000  Reference height [m]
    15.000  Reference wind speed [m/s]
       N/A  Jet height [m]
     0.200  Power law exponent
     0.030  Surface roughness length [m]


You have requested that the following file(s) be generated:

   .\IEAonshore_region3.bts (AeroDyn/TurbSim full-field wind file)
   .\IEAonshore_region3.wnd (AeroDyn/BLADED full-field wnd file)


Turbulence Simulation Scaling Parameter Summary:

   Turbulence model used                            =  IEC Kaimal
   Turbulence characteristic                        =  User-specified
   IEC standard                                     =  IEC 61400-1 Ed. 3: 2005
   Mean wind speed at hub height                    =   15.000 m/s
   Characteristic value of standard deviation       =    0.750 m/s
   Turbulence scale                                 =   42.000 m
   u-component integral scale                       =  340.200 m
   Coherency scale                                  =  340.200 m
   Characteristic value of hub turbulence intensity =    5.000%
   Gradient Richardson number                       =    0.000

   Wind profile type                                =  Power law
   Power law exponent                               =    0.200
   Mean shear across rotor disk                     =    0.031 (m/s)/m
   Assumed rotor diameter                           =  150.000 m
   Surface roughness length                         =    0.030 m

   Number of time steps in the FFT                  =     2016
   Number of time steps output                      =     2002


Mean Flow Angles:

   Vertical   =   0.0 degrees
   Horizontal =   0.0 degrees

Mean Wind Speed Profile:

   Height    Wind Speed   Horizontal Angle  U-comp (X)   V-comp (Y)   W-comp (Z)
     (m)        (m/s)         (degrees)       (m/s)        (m/s)        (m/s)   
   ------    ----------   ----------------  ----------   ----------   ----------
    185.0       16.64            0.00         16.64         0.00         0.00
    180.0       16.55            0.00         16.55         0.00         0.00
    175.0       16.46            0.00         16.46         0.00         0.00
    170.0       16.36            0.00         16.36         0.00         0.00
    165.0       16.27            0.00         16.27         0.00         0.00
    160.0       16.17            0.00         16.17         0.00         0.00
    155.0       16.06            0.00         16.06         0.00         0.00
    150.0       15.96            0.00         15.96         0.00         0.00
    145.0       15.85            0.00         15.85         0.00         0.00
    140.0       15.74            0.00         15.74         0.00         0.00
    135.0       15.63            0.00         15.63         0.00         0.00
    130.0       15.51            0.00         15.51         0.00         0.00
    125.0       15.39            0.00         15.39         0.00         0.00
    120.0       15.26            0.00         15.26         0.00         0.00
    115.0       15.13            0.00         15.13         0.00         0.00
    110.0       15.00            0.00         15.00         0.00         0.00
    105.0       14.86            0.00         14.86         0.00         0.00
    100.0       14.72            0.00         14.72         0.00         0.00
     95.0       14.57            0.00         14.57         0.00         0.00
     90.0       14.41            0.00         14.41         0.00         0.00
     85.0       14.25            0.00         14.25         0.00         0.00
     80.0       14.07            0.00         14.07         0.00         0.00
     75.0       13.89            0.00         13.89         0.00         0.00
     70.0       13.70            0.00         13.70         0.00         0.00
     65.0       13.50            0.00         13.50         0.00         0.00
     60.0       13.29            0.00         13.29         0.00         0.00
     55.0       13.06            0.00         13.06         0.00         0.00
     50.0       12.81            0.00         12.81         0.00         0.00
     45.0       12.54            0.00         12.54         0.00         0.00
     40.0       12.25            0.00         12.25         0.00         0.00
     35.0       11.93            0.00         11.93         0.00         0.00
     30.0       11.57            0.00         11.57         0.00         0.00
     25.0       11.15            0.00         11.15         0.00         0.00
     20.0       10.67            0.00         10.67         0.00         0.00
     15.0       10.07            0.00         10.07         0.00         0.00
     10.0        9.29            0.00          9.29         0.00         0.00
      5.0        8.08            0.00          8.08         0.00         0.00


Harvested Random Seeds after Generation of the Random Numbers:

    757430676 Harvested seed #1
   1026777840 Harvested seed #2


Hub-Height Simulated Turbulence Statistical Summary:

   Type of Wind        Min (m/s)   Mean (m/s)    Max (m/s)  Sigma (m/s)       TI (%)
   ----------------    ---------   ----------    ---------  -----------       ------
   Longitudinal (u)        12.90        15.00        17.33        0.685        4.567
   Lateral (v)             -1.79         0.00         1.54        0.494        3.296
   Vertical (w)            -0.89         0.00         0.76        0.235        1.564
   U component             12.90        15.00        17.33        0.685        4.567
   V component             -1.79         0.00         1.54        0.494        3.296
   W component             -0.89         0.00         0.76        0.235        1.564
   Horizontal (U&V)        12.90        15.01        17.34        0.685        4.564
   Total                   12.90        15.01        17.34        0.685        4.563

                       Min Reynolds     Mean Reynolds    Max Reynolds    Correlation
   Product             Stress (m/s)^2   Stress (m/s)^2   Stress (m/s)^2  Coefficient
   ----------------    --------------   --------------   --------------  -----------
   u'w'                     -0.846            -0.003             0.999        -0.017
   u'v'                     -2.953            -0.024             1.743        -0.071
   v'w'                     -0.637             0.001             1.589         0.012


   Friction Velocity (Ustar)  =      0.052 m/s
   Maximum Instantaneous TKE  =      3.095 (m/s)^2
   Maximum Instantaneous CTKE =      1.484 (m/s)^2


Grid Point Variance Summary:

   Y-coord  -75.00  -70.00  -65.00  -60.00  -55.00  -50.00  -45.00  -40.00  -35.00  -30.00  -25.00  -20.00  -15.00  -10.00   -5.00    0.00    5.00   10.00   15.00   20.00   25.00   30.00   35.00   40.00   45.00   50.00   55.00   60.00   65.00   70.00   75.00

   Height   Standard deviation at grid points for the u component:
   185.00    0.678   0.684   0.680   0.673   0.657   0.668   0.676   0.677   0.672   0.675   0.673   0.683   0.681   0.675   0.677   0.678   0.685   0.689   0.680   0.688   0.695   0.683   0.681   0.696   0.694   0.684   0.684   0.676   0.684   0.692   0.700
   180.00    0.676   0.678   0.667   0.669   0.663   0.669   0.676   0.675   0.683   0.685   0.676   0.684   0.683   0.672   0.681   0.689   0.694   0.698   0.696   0.697   0.698   0.681   0.682   0.680   0.691   0.679   0.678   0.678   0.682   0.690   0.706
   175.00    0.675   0.675   0.673   0.670   0.670   0.671   0.682   0.672   0.671   0.680   0.684   0.679   0.681   0.686   0.687   0.689   0.691   0.690   0.694   0.694   0.695   0.679   0.682   0.670   0.684   0.677   0.669   0.664   0.681   0.694   0.698
   170.00    0.675   0.680   0.674   0.671   0.674   0.674   0.680   0.681   0.678   0.675   0.673   0.675   0.673   0.673   0.682   0.683   0.695   0.699   0.692   0.691   0.693   0.676   0.666   0.669   0.677   0.671   0.669   0.671   0.681   0.688   0.697
   165.00    0.682   0.672   0.681   0.683   0.682   0.680   0.691   0.682   0.674   0.674   0.673   0.673   0.668   0.672   0.679   0.688   0.701   0.694   0.686   0.679   0.689   0.679   0.678   0.673   0.681   0.678   0.677   0.672   0.683   0.689   0.699
   160.00    0.687   0.683   0.677   0.679   0.685   0.692   0.689   0.685   0.687   0.681   0.672   0.673   0.679   0.681   0.678   0.701   0.700   0.694   0.680   0.681   0.693   0.686   0.689   0.679   0.675   0.677   0.671   0.682   0.682   0.694   0.698
   155.00    0.680   0.679   0.681   0.683   0.684   0.689   0.693   0.693   0.675   0.669   0.679   0.680   0.687   0.688   0.686   0.692   0.696   0.701   0.689   0.694   0.687   0.678   0.680   0.672   0.677   0.668   0.684   0.682   0.684   0.693   0.704
   150.00    0.686   0.687   0.685   0.684   0.687   0.682   0.693   0.686   0.675   0.687   0.683   0.688   0.687   0.695   0.698   0.697   0.700   0.702   0.685   0.685   0.686   0.679   0.670   0.662   0.669   0.673   0.687   0.693   0.682   0.699   0.710
   145.00    0.696   0.696   0.685   0.686   0.685   0.684   0.692   0.687   0.687   0.695   0.698   0.689   0.687   0.686   0.691   0.696   0.691   0.695   0.687   0.676   0.670   0.670   0.676   0.674   0.676   0.688   0.697   0.694   0.700   0.701   0.713
   140.00    0.678   0.689   0.685   0.687   0.687   0.680   0.702   0.694   0.693   0.698   0.693   0.689   0.684   0.684   0.689   0.687   0.689   0.685   0.690   0.679   0.671   0.672   0.674   0.678   0.675   0.697   0.707   0.703   0.709   0.710   0.709
   135.00    0.675   0.678   0.678   0.683   0.683   0.689   0.704   0.693   0.698   0.699   0.695   0.696   0.682   0.684   0.674   0.685   0.681   0.690   0.684   0.681   0.681   0.679   0.680   0.689   0.690   0.694   0.697   0.709   0.706   0.713   0.709
   130.00    0.678   0.684   0.678   0.689   0.691   0.695   0.691   0.698   0.704   0.705   0.692   0.699   0.695   0.690   0.691   0.692   0.687   0.685   0.679   0.685   0.683   0.687   0.682   0.691   0.692   0.689   0.702   0.702   0.712   0.710   0.698
   125.00    0.675   0.685   0.681   0.692   0.698   0.695   0.704   0.691   0.691   0.692   0.682   0.688   0.690   0.695   0.695   0.692   0.692   0.686   0.677   0.686   0.690   0.692   0.688   0.689   0.684   0.695   0.692   0.693   0.704   0.696   0.700
   120.00    0.678   0.677   0.682   0.696   0.703   0.703   0.694   0.693   0.683   0.701   0.696   0.695   0.694   0.696   0.699   0.696   0.690   0.683   0.676   0.683   0.686   0.690   0.678   0.682   0.687   0.705   0.695   0.688   0.691   0.699   0.699
   115.00    0.675   0.684   0.681   0.694   0.700   0.703   0.702   0.688   0.695   0.699   0.706   0.708   0.700   0.710   0.692   0.681   0.687   0.687   0.677   0.668   0.679   0.681   0.678   0.680   0.686   0.698   0.694   0.688   0.683   0.696   0.707
   110.00    0.670   0.680   0.678   0.687   0.700   0.700   0.709   0.702   0.702   0.706   0.702   0.709   0.705   0.706   0.686   0.685   0.680   0.693   0.679   0.668   0.681   0.679   0.687   0.681   0.687   0.699   0.696   0.691   0.693   0.680   0.694
   105.00    0.678   0.677   0.675   0.688   0.689   0.701   0.698   0.696   0.698   0.702   0.706   0.709   0.699   0.690   0.685   0.678   0.680   0.683   0.674   0.669   0.669   0.675   0.690   0.691   0.689   0.698   0.699   0.689   0.686   0.686   0.687
   100.00    0.677   0.682   0.690   0.686   0.696   0.692   0.691   0.681   0.697   0.698   0.699   0.691   0.685   0.685   0.677   0.673   0.669   0.675   0.671   0.665   0.670   0.671   0.683   0.683   0.690   0.692   0.683   0.691   0.689   0.687   0.681
    95.00    0.670   0.681   0.689   0.689   0.690   0.698   0.691   0.694   0.695   0.698   0.694   0.694   0.678   0.677   0.671   0.671   0.664   0.678   0.673   0.660   0.666   0.670   0.671   0.667   0.684   0.676   0.685   0.684   0.676   0.674   0.673
    90.00    0.676   0.678   0.681   0.686   0.691   0.693   0.700   0.690   0.683   0.689   0.690   0.680   0.682   0.673   0.674   0.663   0.661   0.673   0.667   0.666   0.667   0.669   0.675   0.667   0.675   0.678   0.682   0.678   0.676   0.665   0.665
    85.00    0.664   0.671   0.678   0.686   0.694   0.698   0.700   0.685   0.683   0.690   0.680   0.676   0.670   0.669   0.672   0.675   0.663   0.668   0.660   0.657   0.671   0.663   0.668   0.668   0.669   0.676   0.674   0.670   0.678   0.671   0.673
    80.00    0.660   0.666   0.676   0.687   0.692   0.704   0.699   0.683   0.680   0.675   0.680   0.673   0.681   0.673   0.678   0.675   0.670   0.664   0.668   0.654   0.661   0.663   0.671   0.671   0.681   0.673   0.672   0.676   0.681   0.681   0.682
    75.00    0.671   0.671   0.679   0.691   0.690   0.706   0.695   0.686   0.671   0.671   0.673   0.683   0.688   0.684   0.686   0.683   0.678   0.678   0.666   0.644   0.645   0.666   0.662   0.676   0.687   0.676   0.675   0.682   0.679   0.689   0.691
    70.00    0.667   0.674   0.674   0.679   0.694   0.691   0.692   0.683   0.674   0.671   0.671   0.680   0.681   0.688   0.685   0.682   0.676   0.676   0.662   0.652   0.650   0.662   0.667   0.680   0.685   0.684   0.687   0.677   0.683   0.689   0.696
    65.00    0.681   0.678   0.673   0.682   0.683   0.674   0.676   0.682   0.683   0.671   0.678   0.678   0.677   0.684   0.674   0.664   0.671   0.672   0.662   0.662   0.666   0.671   0.684   0.679   0.681   0.691   0.688   0.679   0.686   0.693   0.687
    60.00    0.675   0.680   0.675   0.680   0.686   0.679   0.688   0.687   0.680   0.672   0.677   0.680   0.684   0.700   0.675   0.664   0.673   0.665   0.668   0.664   0.671   0.673   0.674   0.684   0.685   0.691   0.691   0.685   0.687   0.697   0.680
    55.00    0.676   0.682   0.685   0.678   0.692   0.682   0.681   0.687   0.678   0.675   0.678   0.683   0.694   0.690   0.672   0.658   0.670   0.674   0.677   0.673   0.681   0.687   0.680   0.686   0.694   0.694   0.688   0.688   0.688   0.686   0.688
    50.00    0.679   0.678   0.686   0.694   0.689   0.686   0.687   0.695   0.689   0.680   0.683   0.685   0.692   0.681   0.679   0.669   0.670   0.680   0.670   0.679   0.680   0.685   0.685   0.685   0.692   0.680   0.683   0.682   0.691   0.697   0.680
    45.00    0.677   0.675   0.681   0.684   0.688   0.689   0.685   0.690   0.688   0.675   0.682   0.680   0.682   0.680   0.680   0.673   0.676   0.677   0.681   0.681   0.685   0.682   0.687   0.691   0.688   0.688   0.691   0.689   0.681   0.689   0.689
    40.00    0.674   0.677   0.676   0.684   0.694   0.688   0.687   0.687   0.682   0.676   0.676   0.672   0.674   0.674   0.673   0.674   0.674   0.685   0.690   0.676   0.685   0.682   0.686   0.679   0.676   0.691   0.693   0.688   0.691   0.692   0.690
    35.00    0.683   0.676   0.678   0.674   0.682   0.689   0.690   0.681   0.672   0.676   0.673   0.674   0.667   0.661   0.669   0.675   0.673   0.675   0.672   0.676   0.682   0.681   0.678   0.687   0.686   0.692   0.695   0.687   0.683   0.690   0.692

   Height   Standard deviation at grid points for the v component:
   185.00    0.494   0.494   0.494   0.494   0.494   0.494   0.494   0.494   0.494   0.494   0.494   0.494   0.494   0.494   0.494   0.494   0.494   0.494   0.494   0.494   0.494   0.494   0.494   0.494   0.494   0.494   0.494   0.494   0.494   0.494   0.494
   180.00    0.494   0.494   0.494   0.494   0.494   0.494   0.494   0.494   0.494   0.494   0.494   0.494   0.494   0.494   0.494   0.494   0.494   0.494   0.494   0.494   0.494   0.494   0.494   0.494   0.494   0.494   0.494   0.494   0.494   0.494   0.494
   175.00    0.494   0.494   0.494   0.494   0.494   0.494   0.494   0.494   0.494   0.494   0.494   0.494   0.494   0.494   0.494   0.494   0.494   0.494   0.494   0.494   0.494   0.494   0.494   0.494   0.494   0.494   0.494   0.494   0.494   0.494   0.494
   170.00    0.494   0.494   0.494   0.494   0.494   0.494   0.494   0.494   0.494   0.494   0.494   0.494   0.494   0.494   0.494   0.494   0.494   0.494   0.494   0.494   0.494   0.494   0.494   0.494   0.494   0.494   0.494   0.494   0.494   0.494   0.494
   165.00    0.494   0.494   0.494   0.494   0.494   0.494   0.494   0.494   0.494   0.494   0.494   0.494   0.494   0.494   0.494   0.494   0.494   0.494   0.494   0.494   0.494   0.494   0.494   0.494   0.494   0.494   0.494   0.494   0.494   0.494   0.494
   160.00    0.494   0.494   0.494   0.494   0.494   0.494   0.494   0.494   0.494   0.494   0.494   0.494   0.494   0.494   0.494   0.494   0.494   0.494   0.494   0.494   0.494   0.494   0.494   0.494   0.494   0.494   0.494   0.494   0.494   0.494   0.494
   155.00    0.494   0.494   0.494   0.494   0.494   0.494   0.494   0.494   0.494   0.494   0.494   0.494   0.494   0.494   0.494   0.494   0.494   0.494   0.494   0.494   0.494   0.494   0.494   0.494   0.494   0.494   0.494   0.494   0.494   0.494   0.494
   150.00    0.494   0.494   0.494   0.494   0.494   0.494   0.494   0.494   0.494   0.494   0.494   0.494   0.494   0.494   0.494   0.494   0.494   0.494   0.494   0.494   0.494   0.494   0.494   0.494   0.494   0.494   0.494   0.494   0.494   0.494   0.494
   145.00    0.494   0.494   0.494   0.494   0.494   0.494   0.494   0.494   0.494   0.494   0.494   0.494   0.494   0.494   0.494   0.494   0.494   0.494   0.494   0.494   0.494   0.494   0.494   0.494   0.494   0.494   0.494   0.494   0.494   0.494   0.494
   140.00    0.494   0.494   0.494   0.494   0.494   0.494   0.494   0.494   0.494   0.494   0.494   0.494   0.494   0.494   0.494   0.494   0.494   0.494   0.494   0.494   0.494   0.494   0.494   0.494   0.494   0.494   0.494   0.494   0.494   0.494   0.494
   135.00    0.494   0.494   0.494   0.494   0.494   0.494   0.494   0.494   0.494   0.494   0.494   0.494   0.494   0.494   0.494   0.494   0.494   0.494   0.494   0.494   0.494   0.494   0.494   0.494   0.494   0.494   0.494   0.494   0.494   0.494   0.494
   130.00    0.494   0.494   0.494   0.494   0.494   0.494   0.494   0.494   0.494   0.494   0.494   0.494   0.494   0.494   0.494   0.494   0.494   0.494   0.494   0.494   0.494   0.494   0.494   0.494   0.494   0.494   0.494   0.494   0.494   0.494   0.494
   125.00    0.494   0.494   0.494   0.494   0.494   0.494   0.494   0.494   0.494   0.494   0.494   0.494   0.494   0.494   0.494   0.494   0.494   0.494   0.494   0.494   0.494   0.494   0.494   0.494   0.494   0.494   0.494   0.494   0.494   0.494   0.494
   120.00    0.494   0.494   0.494   0.494   0.494   0.494   0.494   0.494   0.494   0.494   0.494   0.494   0.494   0.494   0.494   0.494   0.494   0.494   0.494   0.494   0.494   0.494   0.494   0.494   0.494   0.494   0.494   0.494   0.494   0.494   0.494
   115.00    0.494   0.494   0.494   0.494   0.494   0.494   0.494   0.494   0.494   0.494   0.494   0.494   0.494   0.494   0.494   0.494   0.494   0.494   0.494   0.494   0.494   0.494   0.494   0.494   0.494   0.494   0.494   0.494   0.494   0.494   0.494
   110.00    0.494   0.494   0.494   0.494   0.494   0.494   0.494   0.494   0.494   0.494   0.494   0.494   0.494   0.494   0.494   0.494   0.494   0.494   0.494   0.494   0.494   0.494   0.494   0.494   0.494   0.494   0.494   0.494   0.494   0.494   0.494
   105.00    0.494   0.494   0.494   0.494   0.494   0.494   0.494   0.494   0.494   0.494   0.494   0.494   0.494   0.494   0.494   0.494   0.494   0.494   0.494   0.494   0.494   0.494   0.494   0.494   0.494   0.494   0.494   0.494   0.494   0.494   0.494
   100.00    0.494   0.494   0.494   0.494   0.494   0.494   0.494   0.494   0.494   0.494   0.494   0.494   0.494   0.494   0.494   0.494   0.494   0.494   0.494   0.494   0.494   0.494   0.494   0.494   0.494   0.494   0.494   0.494   0.494   0.494   0.494
    95.00    0.494   0.494   0.494   0.494   0.494   0.494   0.494   0.494   0.494   0.494   0.494   0.494   0.494   0.494   0.494   0.494   0.494   0.494   0.494   0.494   0.494   0.494   0.494   0.494   0.494   0.494   0.494   0.494   0.494   0.494   0.494
    90.00    0.494   0.494   0.494   0.494   0.494   0.494   0.494   0.494   0.494   0.494   0.494   0.494   0.494   0.494   0.494   0.494   0.494   0.494   0.494   0.494   0.494   0.494   0.494   0.494   0.494   0.494   0.494   0.494   0.494   0.494   0.494
    85.00    0.494   0.494   0.494   0.494   0.494   0.494   0.494   0.494   0.494   0.494   0.494   0.494   0.494   0.494   0.494   0.494   0.494   0.494   0.494   0.494   0.494   0.494   0.494   0.494   0.494   0.494   0.494   0.494   0.494   0.494   0.494
    80.00    0.494   0.494   0.494   0.494   0.494   0.494   0.494   0.494   0.494   0.494   0.494   0.494   0.494   0.494   0.494   0.494   0.494   0.494   0.494   0.494   0.494   0.494   0.494   0.494   0.494   0.494   0.494   0.494   0.494   0.494   0.494
    75.00    0.494   0.494   0.494   0.494   0.494   0.494   0.494   0.494   0.494   0.494   0.494   0.494   0.494   0.494   0.494   0.494   0.494   0.494   0.494   0.494   0.494   0.494   0.494   0.494   0.494   0.494   0.494   0.494   0.494   0.494   0.494
    70.00    0.494   0.494   0.494   0.494   0.494   0.494   0.494   0.494   0.494   0.494   0.494   0.494   0.494   0.494   0.494   0.494   0.494   0.494   0.494   0.494   0.494   0.494   0.494   0.494   0.494   0.494   0.494   0.494   0.494   0.494   0.494
    65.00    0.494   0.494   0.494   0.494   0.494   0.494   0.494   0.494   0.494   0.494   0.494   0.494   0.494   0.494   0.494   0.494   0.494   0.494   0.494   0.494   0.494   0.494   0.494   0.494   0.494   0.494   0.494   0.494   0.494   0.494   0.494
    60.00    0.494   0.494   0.494   0.494   0.494   0.494   0.494   0.494   0.494   0.494   0.494   0.494   0.494   0.494   0.494   0.494   0.494   0.494   0.494   0.494   0.494   0.494   0.494   0.494   0.494   0.494   0.494   0.494   0.494   0.494   0.494
    55.00    0.494   0.494   0.494   0.494   0.494   0.494   0.494   0.494   0.494   0.494   0.494   0.494   0.494   0.494   0.494   0.494   0.494   0.494   0.494   0.494   0.494   0.494   0.494   0.494   0.494   0.494   0.494   0.494   0.494   0.494   0.494
    50.00    0.494   0.494   0.494   0.494   0.494   0.494   0.494   0.494   0.494   0.494   0.494   0.494   0.494   0.494   0.494   0.494   0.494   0.494   0.494   0.494   0.494   0.494   0.494   0.494   0.494   0.494   0.494   0.494   0.494   0.494   0.494
    45.00    0.494   0.494   0.494   0.494   0.494   0.494   0.494   0.494   0.494   0.494   0.494   0.494   0.494   0.494   0.494   0.494   0.494   0.494   0.494   0.494   0.494   0.494   0.494   0.494   0.494   0.494   0.494   0.494   0.494   0.494   0.494
    40.00    0.494   0.494   0.494   0.494   0.494   0.494   0.494   0.494   0.494   0.494   0.494   0.494   0.494   0.494   0.494   0.494   0.494   0.494   0.494   0.494   0.494   0.494   0.494   0.494   0.494   0.494   0.494   0.494   0.494   0.494   0.494
    35.00    0.494   0.494   0.494   0.494   0.494   0.494   0.494   0.494   0.494   0.494   0.494   0.494   0.494   0.494   0.494   0.494   0.494   0.494   0.494   0.494   0.494   0.494   0.494   0.494   0.494   0.494   0.494   0.494   0.494   0.494   0.494

   Height   Standard deviation at grid points for the w component:
   185.00    0.235   0.235   0.235   0.235   0.235   0.235   0.235   0.235   0.235   0.235   0.235   0.235   0.235   0.235   0.235   0.235   0.235   0.235   0.235   0.235   0.235   0.235   0.235   0.235   0.235   0.235   0.235   0.235   0.235   0.235   0.235
   180.00    0.235   0.235   0.235   0.235   0.235   0.235   0.235   0.235   0.235   0.235   0.235   0.235   0.235   0.235   0.235   0.235   0.235   0.235   0.235   0.235   0.235   0.235   0.235   0.235   0.235   0.235   0.235   0.235   0.235   0.235   0.235
   175.00    0.235   0.235   0.235   0.235   0.235   0.235   0.235   0.235   0.235   0.235   0.235   0.235   0.235   0.235   0.235   0.235   0.235   0.235   0.235   0.235   0.235   0.235   0.235   0.235   0.235   0.235   0.235   0.235   0.235   0.235   0.235
   170.00    0.235   0.235   0.235   0.235   0.235   0.235   0.235   0.235   0.235   0.235   0.235   0.235   0.235   0.235   0.235   0.235   0.235   0.235   0.235   0.235   0.235   0.235   0.235   0.235   0.235   0.235   0.235   0.235   0.235   0.235   0.235
   165.00    0.235   0.235   0.235   0.235   0.235   0.235   0.235   0.235   0.235   0.235   0.235   0.235   0.235   0.235   0.235   0.235   0.235   0.235   0.235   0.235   0.235   0.235   0.235   0.235   0.235   0.235   0.235   0.235   0.235   0.235   0.235
   160.00    0.235   0.235   0.235   0.235   0.235   0.235   0.235   0.235   0.235   0.235   0.235   0.235   0.235   0.235   0.235   0.235   0.235   0.235   0.235   0.235   0.235   0.235   0.235   0.235   0.235   0.235   0.235   0.235   0.235   0.235   0.235
   155.00    0.235   0.235   0.235   0.235   0.235   0.235   0.235   0.235   0.235   0.235   0.235   0.235   0.235   0.235   0.235   0.235   0.235   0.235   0.235   0.235   0.235   0.235   0.235   0.235   0.235   0.235   0.235   0.235   0.235   0.235   0.235
   150.00    0.235   0.235   0.235   0.235   0.235   0.235   0.235   0.235   0.235   0.235   0.235   0.235   0.235   0.235   0.235   0.235   0.235   0.235   0.235   0.235   0.235   0.235   0.235   0.235   0.235   0.235   0.235   0.235   0.235   0.235   0.235
   145.00    0.235   0.235   0.235   0.235   0.235   0.235   0.235   0.235   0.235   0.235   0.235   0.235   0.235   0.235   0.235   0.235   0.235   0.235   0.235   0.235   0.235   0.235   0.235   0.235   0.235   0.235   0.235   0.235   0.235   0.235   0.235
   140.00    0.235   0.235   0.235   0.235   0.235   0.235   0.235   0.235   0.235   0.235   0.235   0.235   0.235   0.235   0.235   0.235   0.235   0.235   0.235   0.235   0.235   0.235   0.235   0.235   0.235   0.235   0.235   0.235   0.235   0.235   0.235
   135.00    0.235   0.235   0.235   0.235   0.235   0.235   0.235   0.235   0.235   0.235   0.235   0.235   0.235   0.235   0.235   0.235   0.235   0.235   0.235   0.235   0.235   0.235   0.235   0.235   0.235   0.235   0.235   0.235   0.235   0.235   0.235
   130.00    0.235   0.235   0.235   0.235   0.235   0.235   0.235   0.235   0.235   0.235   0.235   0.235   0.235   0.235   0.235   0.235   0.235   0.235   0.235   0.235   0.235   0.235   0.235   0.235   0.235   0.235   0.235   0.235   0.235   0.235   0.235
   125.00    0.235   0.235   0.235   0.235   0.235   0.235   0.235   0.235   0.235   0.235   0.235   0.235   0.235   0.235   0.235   0.235   0.235   0.235   0.235   0.235   0.235   0.235   0.235   0.235   0.235   0.235   0.235   0.235   0.235   0.235   0.235
   120.00    0.235   0.235   0.235   0.235   0.235   0.235   0.235   0.235   0.235   0.235   0.235   0.235   0.235   0.235   0.235   0.235   0.235   0.235   0.235   0.235   0.235   0.235   0.235   0.235   0.235   0.235   0.235   0.235   0.235   0.235   0.235
   115.00    0.235   0.235   0.235   0.235   0.235   0.235   0.235   0.235   0.235   0.235   0.235   0.235   0.235   0.235   0.235   0.235   0.235   0.235   0.235   0.235   0.235   0.235   0.235   0.235   0.235   0.235   0.235   0.235   0.235   0.235   0.235
   110.00    0.235   0.235   0.235   0.235   0.235   0.235   0.235   0.235   0.235   0.235   0.235   0.235   0.235   0.235   0.235   0.235   0.235   0.235   0.235   0.235   0.235   0.235   0.235   0.235   0.235   0.235   0.235   0.235   0.235   0.235   0.235
   105.00    0.235   0.235   0.235   0.235   0.235   0.235   0.235   0.235   0.235   0.235   0.235   0.235   0.235   0.235   0.235   0.235   0.235   0.235   0.235   0.235   0.235   0.235   0.235   0.235   0.235   0.235   0.235   0.235   0.235   0.235   0.235
   100.00    0.235   0.235   0.235   0.235   0.235   0.235   0.235   0.235   0.235   0.235   0.235   0.235   0.235   0.235   0.235   0.235   0.235   0.235   0.235   0.235   0.235   0.235   0.235   0.235   0.235   0.235   0.235   0.235   0.235   0.235   0.235
    95.00    0.235   0.235   0.235   0.235   0.235   0.235   0.235   0.235   0.235   0.235   0.235   0.235   0.235   0.235   0.235   0.235   0.235   0.235   0.235   0.235   0.235   0.235   0.235   0.235   0.235   0.235   0.235   0.235   0.235   0.235   0.235
    90.00    0.235   0.235   0.235   0.235   0.235   0.235   0.235   0.235   0.235   0.235   0.235   0.235   0.235   0.235   0.235   0.235   0.235   0.235   0.235   0.235   0.235   0.235   0.235   0.235   0.235   0.235   0.235   0.235   0.235   0.235   0.235
    85.00    0.235   0.235   0.235   0.235   0.235   0.235   0.235   0.235   0.235   0.235   0.235   0.235   0.235   0.235   0.235   0.235   0.235   0.235   0.235   0.235   0.235   0.235   0.235   0.235   0.235   0.235   0.235   0.235   0.235   0.235   0.235
    80.00    0.235   0.235   0.235   0.235   0.235   0.235   0.235   0.235   0.235   0.235   0.235   0.235   0.235   0.235   0.235   0.235   0.235   0.235   0.235   0.235   0.235   0.235   0.235   0.235   0.235   0.235   0.235   0.235   0.235   0.235   0.235
    75.00    0.235   0.235   0.235   0.235   0.235   0.235   0.235   0.235   0.235   0.235   0.235   0.235   0.235   0.235   0.235   0.235   0.235   0.235   0.235   0.235   0.235   0.235   0.235   0.235   0.235   0.235   0.235   0.235   0.235   0.235   0.235
    70.00    0.235   0.235   0.235   0.235   0.235   0.235   0.235   0.235   0.235   0.235   0.235   0.235   0.235   0.235   0.235   0.235   0.235   0.235   0.235   0.235   0.235   0.235   0.235   0.235   0.235   0.235   0.235   0.235   0.235   0.235   0.235
    65.00    0.235   0.235   0.235   0.235   0.235   0.235   0.235   0.235   0.235   0.235   0.235   0.235   0.235   0.235   0.235   0.235   0.235   0.235   0.235   0.235   0.235   0.235   0.235   0.235   0.235   0.235   0.235   0.235   0.235   0.235   0.235
    60.00    0.235   0.235   0.235   0.235   0.235   0.235   0.235   0.235   0.235   0.235   0.235   0.235   0.235   0.235   0.235   0.235   0.235   0.235   0.235   0.235   0.235   0.235   0.235   0.235   0.235   0.235   0.235   0.235   0.235   0.235   0.235
    55.00    0.235   0.235   0.235   0.235   0.235   0.235   0.235   0.235   0.235   0.235   0.235   0.235   0.235   0.235   0.235   0.235   0.235   0.235   0.235   0.235   0.235   0.235   0.235   0.235   0.235   0.235   0.235   0.235   0.235   0.235   0.235
    50.00    0.235   0.235   0.235   0.235   0.235   0.235   0.235   0.235   0.235   0.235   0.235   0.235   0.235   0.235   0.235   0.235   0.235   0.235   0.235   0.235   0.235   0.235   0.235   0.235   0.235   0.235   0.235   0.235   0.235   0.235   0.235
    45.00    0.235   0.235   0.235   0.235   0.235   0.235   0.235   0.235   0.235   0.235   0.235   0.235   0.235   0.235   0.235   0.235   0.235   0.235   0.235   0.235   0.235   0.235   0.235   0.235   0.235   0.235   0.235   0.235   0.235   0.235   0.235
    40.00    0.235   0.235   0.235   0.235   0.235   0.235   0.235   0.235   0.235   0.235   0.235   0.235   0.235   0.235   0.235   0.235   0.235   0.235   0.235   0.235   0.235   0.235   0.235   0.235   0.235   0.235   0.235   0.235   0.235   0.235   0.235
    35.00    0.235   0.235   0.235   0.235   0.235   0.235   0.235   0.235   0.235   0.235   0.235   0.235   0.235   0.235   0.235   0.235   0.235   0.235   0.235   0.235   0.235   0.235   0.235   0.235   0.235   0.235   0.235   0.235   0.235   0.235   0.235

   Mean standard deviation across all grid points:
      u component:    0.683 m/s
      v component:    0.494 m/s
      w component:    0.235 m/s


U-component (X) statistics from the hub grid point:

   Mean =  15.0000 m/s
   TI   =   4.5668 %

Nyquist frequency of turbulent wind field =         0.100 Hz


Processing complete.  58.25 CPU seconds used.
